%nprocshared=4
%chk=C:\Users\Lucas\Desktop\Transmission_Calculation_Software\opt\transmission\molecule.chk
# b3lyp/6-31g(d,p) guess=read geom=connectivity gfprint iop(5/33=3,3/33=1)

Title Card Required

0 1
 C                 -0.69700300    1.20557500    0.00000100
 C                  0.69699400    1.20557800   -0.00004200
 C                  1.40819600    0.00124700    0.00001400
 C                  0.69550200   -1.20496200    0.00003700
 C                 -0.69550600   -1.20496700    0.00000100
 C                 -1.40820700    0.00123800    0.00000000
 H                 -1.22366800    2.15538200    0.00000200
 H                  1.22366200    2.15538200   -0.00013700
 H                  1.22739700   -2.15177800    0.00008200
 H                 -1.22738000   -2.15179700   -0.00001200
 S                 -3.19470400   -0.07901400    0.00002700
 H                 -3.41570300    1.24951100   -0.00037000
 S                  3.19471100   -0.07901500   -0.00007500
 H                  3.41572500    1.24951400    0.00113600

 1 2 1.5 6 1.5 7 1.0
 2 3 1.5 8 1.0
 3 4 1.5 13 1.0
 4 5 1.5 9 1.0
 5 6 1.5 10 1.0
 6 11 1.0
 7
 8
 9
 10
 11 12 1.0
 12
 13 14 1.0
 14

